REMARK  Name = CF
REMARK  3 active torsions:
REMARK  status: ('A' for Active; 'I' for Inactive)
REMARK    1  A    between atoms: C_1  and  N_2
REMARK    2  A    between atoms: N_6  and  C_7
REMARK    3  A    between atoms: N_10  and  C_11
REMARK                            x       y       z     vdW  Elec       q    Type
REMARK                         _______ _______ _______ _____ _____    ______ ____
ROOT
ATOM      1  C   UNL A   1      -3.227  -1.190   0.022  0.00  0.00    +0.150 C 
ATOM      2  N   UNL A   1      -2.258  -0.099   0.015  0.00  0.00    -0.328 N 
ATOM      3  C   UNL A   1      -2.532   1.229   0.007  0.00  0.00    +0.202 A 
ATOM      4  N   UNL A   1      -1.408   1.989   0.003  0.00  0.00    -0.218 NA
ATOM      5  C   UNL A   1      -0.410   1.083   0.008  0.00  0.00    +0.168 A 
ATOM      6  N   UNL A   1       0.927   1.337   0.006  0.00  0.00    -0.280 N 
ATOM      7  C   UNL A   1       1.447   2.710  -0.000  0.00  0.00    +0.155 C 
ATOM      8  C   UNL A   1       1.794   0.250   0.011  0.00  0.00    +0.333 A 
ATOM      9  O   UNL A   1       3.000   0.446   0.010  0.00  0.00    -0.246 OA
ATOM     10  N   UNL A   1       1.298  -1.056   0.018  0.00  0.00    -0.262 N 
ATOM     11  C   UNL A   1       2.205  -2.216   0.023  0.00  0.00    +0.157 C 
ATOM     12  C   UNL A   1      -0.071  -1.277   0.020  0.00  0.00    +0.282 A 
ATOM     13  O   UNL A   1      -0.527  -2.409   0.026  0.00  0.00    -0.265 OA
ATOM     14  C   UNL A   1      -0.915  -0.174   0.015  0.00  0.00    +0.151 A 
ENDROOT
TORSDOF 0
