MODEL 1
REMARK VINA RESULT:     0.000      0.000      0.000
REMARK INTER + INTRA:           0.000
REMARK INTER:                   0.000
REMARK INTRA:                   0.000
REMARK UNBOUND:                 0.000
REMARK  Name = CF
REMARK  3 active torsions:
REMARK  status: ('A' for Active; 'I' for Inactive)
REMARK    1  A    between atoms: C_1  and  N_2
REMARK    2  A    between atoms: N_6  and  C_7
REMARK    3  A    between atoms: N_10  and  C_11
REMARK                            x       y       z     vdW  Elec       q    Type
REMARK                         _______ _______ _______ _____ _____    ______ ____
ROOT
ATOM      1  C   UNL A   1       1.417   0.672   3.344  0.00  0.00    +0.150 C 
ATOM      2  N   UNL A   1       2.140   1.940   3.338  0.00  0.00    -0.328 N 
ATOM      3  C   UNL A   1       3.385   2.161   2.848  0.00  0.00    +0.202 A 
ATOM      4  N   UNL A   1       3.775   3.453   2.992  0.00  0.00    -0.218 NA
ATOM      5  C   UNL A   1       2.723   4.039   3.596  0.00  0.00    +0.168 A 
ATOM      6  N   UNL A   1       2.612   5.344   3.964  0.00  0.00    -0.280 N 
ATOM      7  C   UNL A   1       3.696   6.304   3.722  0.00  0.00    +0.155 C 
ATOM      8  C   UNL A   1       1.432   5.747   4.580  0.00  0.00    +0.333 A 
ATOM      9  O   UNL A   1       1.303   6.913   4.922  0.00  0.00    -0.246 OA
ATOM     10  N   UNL A   1       0.401   4.833   4.809  0.00  0.00    -0.262 N 
ATOM     11  C   UNL A   1      -0.854   5.246   5.460  0.00  0.00    +0.157 C 
ATOM     12  C   UNL A   1       0.549   3.510   4.420  0.00  0.00    +0.282 A 
ATOM     13  O   UNL A   1      -0.339   2.694   4.610  0.00  0.00    -0.265 OA
ATOM     14  C   UNL A   1       1.737   3.134   3.807  0.00  0.00    +0.151 A 
ENDROOT
TORSDOF 0
ENDMDL
MODEL 2
REMARK VINA RESULT:     0.000      7.552      8.347
REMARK INTER + INTRA:           0.000
REMARK INTER:                   0.000
REMARK INTRA:                   0.000
REMARK UNBOUND:                 0.000
REMARK  Name = CF
REMARK  3 active torsions:
REMARK  status: ('A' for Active; 'I' for Inactive)
REMARK    1  A    between atoms: C_1  and  N_2
REMARK    2  A    between atoms: N_6  and  C_7
REMARK    3  A    between atoms: N_10  and  C_11
REMARK                            x       y       z     vdW  Elec       q    Type
REMARK                         _______ _______ _______ _____ _____    ______ ____
ROOT
ATOM      1  C   UNL A   1       0.916   0.092  -2.025  0.00  0.00    +0.150 C 
ATOM      2  N   UNL A   1       0.296   1.401  -2.195  0.00  0.00    -0.328 N 
ATOM      3  C   UNL A   1       0.851   2.605  -1.913  0.00  0.00    +0.202 A 
ATOM      4  N   UNL A   1       0.014   3.638  -2.184  0.00  0.00    -0.218 NA
ATOM      5  C   UNL A   1      -1.097   3.034  -2.650  0.00  0.00    +0.168 A 
ATOM      6  N   UNL A   1      -2.245   3.637  -3.064  0.00  0.00    -0.280 N 
ATOM      7  C   UNL A   1      -2.394   5.098  -3.045  0.00  0.00    +0.155 C 
ATOM      8  C   UNL A   1      -3.280   2.824  -3.511  0.00  0.00    +0.333 A 
ATOM      9  O   UNL A   1      -4.323   3.336  -3.890  0.00  0.00    -0.246 OA
ATOM     10  N   UNL A   1      -3.137   1.434  -3.530  0.00  0.00    -0.262 N 
ATOM     11  C   UNL A   1      -4.225   0.562  -4.000  0.00  0.00    +0.157 C 
ATOM     12  C   UNL A   1      -1.952   0.855  -3.100  0.00  0.00    +0.282 A 
ATOM     13  O   UNL A   1      -1.804  -0.357  -3.108  0.00  0.00    -0.265 OA
ATOM     14  C   UNL A   1      -0.934   1.689  -2.659  0.00  0.00    +0.151 A 
ENDROOT
TORSDOF 0
ENDMDL
MODEL 3
REMARK VINA RESULT:     0.000     10.202     11.281
REMARK INTER + INTRA:           0.000
REMARK INTER:                   0.000
REMARK INTRA:                   0.000
REMARK UNBOUND:                 0.000
REMARK  Name = CF
REMARK  3 active torsions:
REMARK  status: ('A' for Active; 'I' for Inactive)
REMARK    1  A    between atoms: C_1  and  N_2
REMARK    2  A    between atoms: N_6  and  C_7
REMARK    3  A    between atoms: N_10  and  C_11
REMARK                            x       y       z     vdW  Elec       q    Type
REMARK                         _______ _______ _______ _____ _____    ______ ____
ROOT
ATOM      1  C   UNL A   1      -1.903  -6.999   3.742  0.00  0.00    +0.150 C 
ATOM      2  N   UNL A   1      -0.527  -6.523   3.633  0.00  0.00    -0.328 N 
ATOM      3  C   UNL A   1       0.186  -5.880   4.590  0.00  0.00    +0.202 A 
ATOM      4  N   UNL A   1       1.441  -5.570   4.178  0.00  0.00    -0.218 NA
ATOM      5  C   UNL A   1       1.491  -6.045   2.918  0.00  0.00    +0.168 A 
ATOM      6  N   UNL A   1       2.545  -5.984   2.060  0.00  0.00    -0.280 N 
ATOM      7  C   UNL A   1       3.815  -5.356   2.448  0.00  0.00    +0.155 C 
ATOM      8  C   UNL A   1       2.385  -6.538   0.795  0.00  0.00    +0.333 A 
ATOM      9  O   UNL A   1       3.314  -6.499   0.002  0.00  0.00    -0.246 OA
ATOM     10  N   UNL A   1       1.177  -7.135   0.427  0.00  0.00    -0.262 N 
ATOM     11  C   UNL A   1       0.995  -7.726  -0.910  0.00  0.00    +0.157 C 
ATOM     12  C   UNL A   1       0.124  -7.180   1.328  0.00  0.00    +0.282 A 
ATOM     13  O   UNL A   1      -0.940  -7.696   1.028  0.00  0.00    -0.265 OA
ATOM     14  C   UNL A   1       0.310  -6.619   2.585  0.00  0.00    +0.151 A 
ENDROOT
TORSDOF 0
ENDMDL
MODEL 4
REMARK VINA RESULT:     0.000      8.353      9.941
REMARK INTER + INTRA:           0.000
REMARK INTER:                   0.000
REMARK INTRA:                   0.000
REMARK UNBOUND:                 0.000
REMARK  Name = CF
REMARK  3 active torsions:
REMARK  status: ('A' for Active; 'I' for Inactive)
REMARK    1  A    between atoms: C_1  and  N_2
REMARK    2  A    between atoms: N_6  and  C_7
REMARK    3  A    between atoms: N_10  and  C_11
REMARK                            x       y       z     vdW  Elec       q    Type
REMARK                         _______ _______ _______ _____ _____    ______ ____
ROOT
ATOM      1  C   UNL A   1      -1.903  -6.999   3.742  0.00  0.00    +0.150 C 
ATOM      2  N   UNL A   1      -0.974  -6.083   4.396  0.00  0.00    -0.328 N 
ATOM      3  C   UNL A   1      -1.178  -5.412   5.556  0.00  0.00    +0.202 A 
ATOM      4  N   UNL A   1      -0.118  -4.638   5.900  0.00  0.00    -0.218 NA
ATOM      5  C   UNL A   1       0.766  -4.847   4.904  0.00  0.00    +0.168 A 
ATOM      6  N   UNL A   1       2.003  -4.294   4.777  0.00  0.00    -0.280 N 
ATOM      7  C   UNL A   1       2.531  -3.357   5.777  0.00  0.00    +0.155 C 
ATOM      8  C   UNL A   1       2.760  -4.646   3.665  0.00  0.00    +0.333 A 
ATOM      9  O   UNL A   1       3.875  -4.167   3.524  0.00  0.00    -0.246 OA
ATOM     10  N   UNL A   1       2.258  -5.539   2.715  0.00  0.00    -0.262 N 
ATOM     11  C   UNL A   1       3.049  -5.919   1.533  0.00  0.00    +0.157 C 
ATOM     12  C   UNL A   1       0.993  -6.083   2.877  0.00  0.00    +0.282 A 
ATOM     13  O   UNL A   1       0.533  -6.864   2.061  0.00  0.00    -0.265 OA
ATOM     14  C   UNL A   1       0.257  -5.715   3.997  0.00  0.00    +0.151 A 
ENDROOT
TORSDOF 0
ENDMDL
MODEL 5
REMARK VINA RESULT:     0.000      7.676      9.857
REMARK INTER + INTRA:           0.000
REMARK INTER:                   0.000
REMARK INTRA:                   0.000
REMARK UNBOUND:                 0.000
REMARK  Name = CF
REMARK  3 active torsions:
REMARK  status: ('A' for Active; 'I' for Inactive)
REMARK    1  A    between atoms: C_1  and  N_2
REMARK    2  A    between atoms: N_6  and  C_7
REMARK    3  A    between atoms: N_10  and  C_11
REMARK                            x       y       z     vdW  Elec       q    Type
REMARK                         _______ _______ _______ _____ _____    ______ ____
ROOT
ATOM      1  C   UNL A   1      -0.765  -7.271   2.194  0.00  0.00    +0.150 C 
ATOM      2  N   UNL A   1      -0.063  -6.034   2.520  0.00  0.00    -0.328 N 
ATOM      3  C   UNL A   1      -0.412  -5.128   3.466  0.00  0.00    +0.202 A 
ATOM      4  N   UNL A   1       0.450  -4.082   3.525  0.00  0.00    -0.218 NA
ATOM      5  C   UNL A   1       1.361  -4.366   2.573  0.00  0.00    +0.168 A 
ATOM      6  N   UNL A   1       2.446  -3.620   2.229  0.00  0.00    -0.280 N 
ATOM      7  C   UNL A   1       2.752  -2.354   2.905  0.00  0.00    +0.155 C 
ATOM      8  C   UNL A   1       3.265  -4.096   1.210  0.00  0.00    +0.333 A 
ATOM      9  O   UNL A   1       4.247  -3.449   0.880  0.00  0.00    -0.246 OA
ATOM     10  N   UNL A   1       2.973  -5.302   0.568  0.00  0.00    -0.262 N 
ATOM     11  C   UNL A   1       3.831  -5.818  -0.512  0.00  0.00    +0.157 C 
ATOM     12  C   UNL A   1       1.859  -6.036   0.945  0.00  0.00    +0.282 A 
ATOM     13  O   UNL A   1       1.585  -7.092   0.399  0.00  0.00    -0.265 OA
ATOM     14  C   UNL A   1       1.058  -5.538   1.965  0.00  0.00    +0.151 A 
ENDROOT
TORSDOF 0
ENDMDL
MODEL 6
REMARK VINA RESULT:     0.000      4.481      6.226
REMARK INTER + INTRA:           0.000
REMARK INTER:                   0.000
REMARK INTRA:                   0.000
REMARK UNBOUND:                 0.000
REMARK  Name = CF
REMARK  3 active torsions:
REMARK  status: ('A' for Active; 'I' for Inactive)
REMARK    1  A    between atoms: C_1  and  N_2
REMARK    2  A    between atoms: N_6  and  C_7
REMARK    3  A    between atoms: N_10  and  C_11
REMARK                            x       y       z     vdW  Elec       q    Type
REMARK                         _______ _______ _______ _____ _____    ______ ____
ROOT
ATOM      1  C   UNL A   1       1.698  -1.473   3.270  0.00  0.00    +0.150 C 
ATOM      2  N   UNL A   1       0.254  -1.669   3.329  0.00  0.00    -0.328 N 
ATOM      3  C   UNL A   1      -0.426  -2.798   3.007  0.00  0.00    +0.202 A 
ATOM      4  N   UNL A   1      -1.766  -2.659   3.170  0.00  0.00    -0.218 NA
ATOM      5  C   UNL A   1      -1.905  -1.392   3.609  0.00  0.00    +0.168 A 
ATOM      6  N   UNL A   1      -3.066  -0.757   3.924  0.00  0.00    -0.280 N 
ATOM      7  C   UNL A   1      -4.365  -1.433   3.810  0.00  0.00    +0.155 C 
ATOM      8  C   UNL A   1      -2.988   0.561   4.360  0.00  0.00    +0.333 A 
ATOM      9  O   UNL A   1      -4.014   1.157   4.650  0.00  0.00    -0.246 OA
ATOM     10  N   UNL A   1      -1.751   1.202   4.468  0.00  0.00    -0.262 N 
ATOM     11  C   UNL A   1      -1.654   2.597   4.929  0.00  0.00    +0.157 C 
ATOM     12  C   UNL A   1      -0.588   0.523   4.139  0.00  0.00    +0.282 A 
ATOM     13  O   UNL A   1       0.503   1.063   4.226  0.00  0.00    -0.265 OA
ATOM     14  C   UNL A   1      -0.694  -0.792   3.706  0.00  0.00    +0.151 A 
ENDROOT
TORSDOF 0
ENDMDL
MODEL 7
REMARK VINA RESULT:     0.000      5.814      7.790
REMARK INTER + INTRA:           0.000
REMARK INTER:                   0.000
REMARK INTRA:                   0.000
REMARK UNBOUND:                 0.000
REMARK  Name = CF
REMARK  3 active torsions:
REMARK  status: ('A' for Active; 'I' for Inactive)
REMARK    1  A    between atoms: C_1  and  N_2
REMARK    2  A    between atoms: N_6  and  C_7
REMARK    3  A    between atoms: N_10  and  C_11
REMARK                            x       y       z     vdW  Elec       q    Type
REMARK                         _______ _______ _______ _____ _____    ______ ____
ROOT
ATOM      1  C   UNL A   1       0.626  -1.116   4.704  0.00  0.00    +0.150 C 
ATOM      2  N   UNL A   1      -0.600  -1.896   4.840  0.00  0.00    -0.328 N 
ATOM      3  C   UNL A   1      -0.696  -3.244   4.945  0.00  0.00    +0.202 A 
ATOM      4  N   UNL A   1      -1.981  -3.664   5.060  0.00  0.00    -0.218 NA
ATOM      5  C   UNL A   1      -2.695  -2.521   5.022  0.00  0.00    +0.168 A 
ATOM      6  N   UNL A   1      -4.048  -2.397   5.100  0.00  0.00    -0.280 N 
ATOM      7  C   UNL A   1      -4.919  -3.570   5.245  0.00  0.00    +0.155 C 
ATOM      8  C   UNL A   1      -4.587  -1.117   5.040  0.00  0.00    +0.333 A 
ATOM      9  O   UNL A   1      -5.798  -0.973   5.108  0.00  0.00    -0.246 OA
ATOM     10  N   UNL A   1      -3.757  -0.001   4.903  0.00  0.00    -0.262 N 
ATOM     11  C   UNL A   1      -4.315   1.360   4.838  0.00  0.00    +0.157 C 
ATOM     12  C   UNL A   1      -2.382  -0.165   4.827  0.00  0.00    +0.282 A 
ATOM     13  O   UNL A   1      -1.638   0.795   4.707  0.00  0.00    -0.265 OA
ATOM     14  C   UNL A   1      -1.870  -1.455   4.890  0.00  0.00    +0.151 A 
ENDROOT
TORSDOF 0
ENDMDL
MODEL 8
REMARK VINA RESULT:     0.000      6.898      7.944
REMARK INTER + INTRA:           0.000
REMARK INTER:                   0.000
REMARK INTRA:                   0.000
REMARK UNBOUND:                 0.000
REMARK  Name = CF
REMARK  3 active torsions:
REMARK  status: ('A' for Active; 'I' for Inactive)
REMARK    1  A    between atoms: C_1  and  N_2
REMARK    2  A    between atoms: N_6  and  C_7
REMARK    3  A    between atoms: N_10  and  C_11
REMARK                            x       y       z     vdW  Elec       q    Type
REMARK                         _______ _______ _______ _____ _____    ______ ____
ROOT
ATOM      1  C   UNL A   1      -2.064   0.772   2.108  0.00  0.00    +0.150 C 
ATOM      2  N   UNL A   1      -3.095   0.824   1.076  0.00  0.00    -0.328 N 
ATOM      3  C   UNL A   1      -3.931  -0.180   0.712  0.00  0.00    +0.202 A 
ATOM      4  N   UNL A   1      -4.778   0.188  -0.281  0.00  0.00    -0.218 NA
ATOM      5  C   UNL A   1      -4.442   1.469  -0.531  0.00  0.00    +0.168 A 
ATOM      6  N   UNL A   1      -5.002   2.298  -1.453  0.00  0.00    -0.280 N 
ATOM      7  C   UNL A   1      -6.099   1.851  -2.321  0.00  0.00    +0.155 C 
ATOM      8  C   UNL A   1      -4.502   3.592  -1.551  0.00  0.00    +0.333 A 
ATOM      9  O   UNL A   1      -4.985   4.360  -2.369  0.00  0.00    -0.246 OA
ATOM     10  N   UNL A   1      -3.459   4.016  -0.724  0.00  0.00    -0.262 N 
ATOM     11  C   UNL A   1      -2.921   5.384  -0.817  0.00  0.00    +0.157 C 
ATOM     12  C   UNL A   1      -2.913   3.144   0.205  0.00  0.00    +0.282 A 
ATOM     13  O   UNL A   1      -2.001   3.492   0.937  0.00  0.00    -0.265 OA
ATOM     14  C   UNL A   1      -3.430   1.857   0.282  0.00  0.00    +0.151 A 
ENDROOT
TORSDOF 0
ENDMDL
MODEL 9
REMARK VINA RESULT:     0.000      7.246      8.594
REMARK INTER + INTRA:           0.000
REMARK INTER:                   0.000
REMARK INTRA:                   0.000
REMARK UNBOUND:                 0.000
REMARK  Name = CF
REMARK  3 active torsions:
REMARK  status: ('A' for Active; 'I' for Inactive)
REMARK    1  A    between atoms: C_1  and  N_2
REMARK    2  A    between atoms: N_6  and  C_7
REMARK    3  A    between atoms: N_10  and  C_11
REMARK                            x       y       z     vdW  Elec       q    Type
REMARK                         _______ _______ _______ _____ _____    ______ ____
ROOT
ATOM      1  C   UNL A   1      -3.269   0.426   3.959  0.00  0.00    +0.150 C 
ATOM      2  N   UNL A   1      -4.488   0.425   3.157  0.00  0.00    -0.328 N 
ATOM      3  C   UNL A   1      -5.555  -0.399   3.305  0.00  0.00    +0.202 A 
ATOM      4  N   UNL A   1      -6.534  -0.145   2.400  0.00  0.00    -0.218 NA
ATOM      5  C   UNL A   1      -6.038   0.876   1.672  0.00  0.00    +0.168 A 
ATOM      6  N   UNL A   1      -6.641   1.505   0.627  0.00  0.00    -0.280 N 
ATOM      7  C   UNL A   1      -7.976   1.110   0.160  0.00  0.00    +0.155 C 
ATOM      8  C   UNL A   1      -5.952   2.542   0.008  0.00  0.00    +0.333 A 
ATOM      9  O   UNL A   1      -6.467   3.127  -0.933  0.00  0.00    -0.246 OA
ATOM     10  N   UNL A   1      -4.682   2.918   0.454  0.00  0.00    -0.262 N 
ATOM     11  C   UNL A   1      -3.941   4.015  -0.192  0.00  0.00    +0.157 C 
ATOM     12  C   UNL A   1      -4.099   2.255   1.523  0.00  0.00    +0.282 A 
ATOM     13  O   UNL A   1      -2.991   2.566   1.930  0.00  0.00    -0.265 OA
ATOM     14  C   UNL A   1      -4.809   1.223   2.123  0.00  0.00    +0.151 A 
ENDROOT
TORSDOF 0
ENDMDL
