CF
 OpenBabel12212507253D

 24 25  0  0  0  0  0  0  0  0999 V2000
   -3.2273   -1.1898    0.0219 C   0  0  0  0  0  0  0  0  0  0  0  0
   -2.2581   -0.0985    0.0149 N   0  0  0  0  0  0  0  0  0  0  0  0
   -2.5321    1.2286    0.0074 C   0  0  0  0  0  0  0  0  0  0  0  0
   -1.4084    1.9889    0.0030 N   0  0  0  0  0  0  0  0  0  0  0  0
   -0.4097    1.0835    0.0077 C   0  0  0  0  0  0  0  0  0  0  0  0
    0.9274    1.3365    0.0062 N   0  0  0  0  0  0  0  0  0  0  0  0
    1.4474    2.7103   -0.0004 C   0  0  0  0  0  0  0  0  0  0  0  0
    1.7942    0.2504    0.0114 C   0  0  0  0  0  0  0  0  0  0  0  0
    3.0002    0.4461    0.0100 O   0  0  0  0  0  0  0  0  0  0  0  0
    1.2980   -1.0561    0.0182 N   0  0  0  0  0  0  0  0  0  0  0  0
    2.2048   -2.2163    0.0234 C   0  0  0  0  0  0  0  0  0  0  0  0
   -0.0714   -1.2770    0.0201 C   0  0  0  0  0  0  0  0  0  0  0  0
   -0.5272   -2.4090    0.0262 O   0  0  0  0  0  0  0  0  0  0  0  0
   -0.9149   -0.1738    0.0146 C   0  0  0  0  0  0  0  0  0  0  0  0
   -4.2636   -0.7896    0.0197 H   0  0  0  0  0  0  0  0  0  0  0  0
   -3.0871   -1.8092    0.9325 H   0  0  0  0  0  0  0  0  0  0  0  0
   -3.0875   -1.8210   -0.8806 H   0  0  0  0  0  0  0  0  0  0  0  0
   -3.5327    1.6415    0.0055 H   0  0  0  0  0  0  0  0  0  0  0  0
    0.6332    3.4653   -0.0035 H   0  0  0  0  0  0  0  0  0  0  0  0
    2.0693    2.8713   -0.9065 H   0  0  0  0  0  0  0  0  0  0  0  0
    2.0698    2.8795    0.9038 H   0  0  0  0  0  0  0  0  0  0  0  0
    3.2749   -1.9223    0.0213 H   0  0  0  0  0  0  0  0  0  0  0  0
    2.0224   -2.8388   -0.8785 H   0  0  0  0  0  0  0  0  0  0  0  0
    2.0235   -2.8299    0.9315 H   0  0  0  0  0  0  0  0  0  0  0  0
  1  2  1  0  0  0  0
  1 15  1  0  0  0  0
  1 16  1  0  0  0  0
  1 17  1  0  0  0  0
  2  3  1  0  0  0  0
  2 14  1  0  0  0  0
  3  4  2  0  0  0  0
  3 18  1  0  0  0  0
  4  5  1  0  0  0  0
  5  6  1  0  0  0  0
  5 14  2  0  0  0  0
  6  7  1  0  0  0  0
  6  8  1  0  0  0  0
  7 19  1  0  0  0  0
  7 20  1  0  0  0  0
  7 21  1  0  0  0  0
  8  9  2  0  0  0  0
  8 10  1  0  0  0  0
 10 11  1  0  0  0  0
 10 12  1  0  0  0  0
 11 22  1  0  0  0  0
 11 23  1  0  0  0  0
 11 24  1  0  0  0  0
 12 13  2  0  0  0  0
 12 14  1  0  0  0  0
M  END
>  <Energy>
277.505

$$$$
